Circuit: * C:\Users\My PC\Downloads\Spice64\bin\On-chip_PLL.asc

WARNING: Node N001 is floating.
WARNING: Node N002 is floating.
WARNING: Node N003 is floating.
WARNING: Node N004 is floating.
WARNING: Node N005 is floating.
WARNING: Node N008 is floating.
WARNING: Node N010 is floating.
WARNING: Node N011 is floating.
WARNING: Node N014 is floating.
WARNING: Node N016 is floating.
WARNING: Node N017 is floating.
WARNING: Node N015 is floating.
WARNING: Node N018 is floating.
WARNING: Node N019 is floating.
WARNING: Node N020 is floating.
WARNING: Node N021 is floating.
WARNING: Node N022 is floating.
WARNING: Node N025 is floating.
WARNING: Node N027 is floating.
WARNING: Node N028 is floating.
WARNING: Node N031 is floating.
WARNING: Node N033 is floating.
WARNING: Node N034 is floating.
WARNING: Node N032 is floating.
WARNING: Node N056 is floating.
WARNING: Node N064 is floating.
WARNING: Node N071 is floating.
WARNING: Node N036 is floating.
WARNING: Node N041 is floating.
WARNING: Node N037 is floating.
WARNING: Node N038 is floating.
WARNING: Node N039 is floating.
WARNING: Node N040 is floating.
WARNING: Node N047 is floating.
WARNING: Node N051 is floating.
WARNING: Node N048 is floating.
WARNING: Node N049 is floating.
WARNING: Node N050 is floating.
WARNING: Node N058 is floating.
WARNING: Node N059 is floating.
WARNING: Node N060 is floating.
WARNING: Node N061 is floating.
WARNING: Node N062 is floating.
WARNING: Node N063 is floating.
WARNING: Node N076 is floating.
WARNING: Node N072 is floating.
WARNING: Node N073 is floating.
WARNING: Node N074 is floating.
WARNING: Node N075 is floating.
WARNING: Node N081 is floating.
WARNING: Node N057 is floating.
WARNING: Node N078 is floating.

WARNING: Less than two connections to node N001.  This node is used by M1.
WARNING: Less than two connections to node N002.  This node is used by M2.
WARNING: Less than two connections to node N003.  This node is used by M3.
WARNING: Less than two connections to node N004.  This node is used by M4.
WARNING: Less than two connections to node N005.  This node is used by M5.
WARNING: Less than two connections to node N008.  This node is used by M6.
WARNING: Less than two connections to node N010.  This node is used by M13.
WARNING: Less than two connections to node N011.  This node is used by M14.
WARNING: Less than two connections to node N014.  This node is used by M15.
WARNING: Less than two connections to node N016.  This node is used by M16.
WARNING: Less than two connections to node N017.  This node is used by M17.
WARNING: Less than two connections to node N015.  This node is used by M18.
WARNING: Less than two connections to node N018.  This node is used by M7.
WARNING: Less than two connections to node N019.  This node is used by M8.
WARNING: Less than two connections to node N020.  This node is used by M9.
WARNING: Less than two connections to node N021.  This node is used by M10.
WARNING: Less than two connections to node N022.  This node is used by M11.
WARNING: Less than two connections to node N025.  This node is used by M12.
WARNING: Less than two connections to node N027.  This node is used by M19.
WARNING: Less than two connections to node N028.  This node is used by M20.
WARNING: Less than two connections to node N031.  This node is used by M21.
WARNING: Less than two connections to node N033.  This node is used by M22.
WARNING: Less than two connections to node N034.  This node is used by M23.
WARNING: Less than two connections to node N032.  This node is used by M24.
WARNING: Less than two connections to node N056.  This node is used by M25.
WARNING: Less than two connections to node N064.  This node is used by M27.
WARNING: Less than two connections to node N071.  This node is used by M28.
WARNING: Less than two connections to node N036.  This node is used by M29.
WARNING: Less than two connections to node N041.  This node is used by M30.
WARNING: Less than two connections to node N037.  This node is used by M31.
WARNING: Less than two connections to node N038.  This node is used by M32.
WARNING: Less than two connections to node N039.  This node is used by M33.
WARNING: Less than two connections to node N040.  This node is used by M34.
WARNING: Less than two connections to node N047.  This node is used by M35.
WARNING: Less than two connections to node N051.  This node is used by M36.
WARNING: Less than two connections to node N048.  This node is used by M37.
WARNING: Less than two connections to node N049.  This node is used by M38.
WARNING: Less than two connections to node N050.  This node is used by M39.
WARNING: Less than two connections to node N058.  This node is used by M40.
WARNING: Less than two connections to node N059.  This node is used by M41.
WARNING: Less than two connections to node N060.  This node is used by M42.
WARNING: Less than two connections to node N061.  This node is used by M43.
WARNING: Less than two connections to node N062.  This node is used by M44.
WARNING: Less than two connections to node N063.  This node is used by M45.
WARNING: Less than two connections to node N076.  This node is used by M46.
WARNING: Less than two connections to node N072.  This node is used by M47.
WARNING: Less than two connections to node N073.  This node is used by M48.
WARNING: Less than two connections to node N074.  This node is used by M49.
WARNING: Less than two connections to node N075.  This node is used by M50.
WARNING: Less than two connections to node N081.  This node is used by M52.
WARNING: Less than two connections to node N057.  This node is used by M26.
WARNING: Less than two connections to node N078.  This node is used by M51.
WARNING: Less than two connections to node VPOS.  This node is used by V3.
WARNING: Less than two connections to node VNEG.  This node is used by V4.
Warning: Pd = 0 is less than W.
Warning: Ps = 0 is less than W.
Warning: k2 should be specified with k1.
Warning: Pd = 0 is less than W.
Warning: Ps = 0 is less than W.
Warning: k2 should be specified with k1.
Early termination of direct N-R iteration.
Direct Newton iteration failed to find .op point.  (Use ".option noopiter" to skip.)
Starting Gmin stepping
Gmin = 10
Gmin = 1.07374
Gmin = 0.115292
Gmin = 0.0123794
Gmin = 0.00132923
Gmin = 0.000142725
Gmin = 1.5325e-005
Gmin = 1.6455e-006
Gmin = 1.76685e-007
Gmin = 1.89714e-008
Gmin = 2.03704e-009
Gmin = 2.18725e-010
Gmin = 2.34854e-011
Gmin = 2.52173e-012
Gmin = 2.70769e-013
Gmin = 0
Gmin stepping succeeded in finding the operating point.


Date: Wed Jun 24 19:16:55 2020
Total elapsed time: 17.785 seconds.

tnom = 27
temp = 27
method = modified trap
totiter = 274772
traniter = 274362
tranpoints = 93493
accept = 72134
rejected = 21359
matrix size = 94
fillins = 32
solver = Normal
Thread vector: 47.3/20.5[5] 8.8/3.5[5] 7.1/4.9[5] 0.8/1.5[1]  2592/500
Matrix Compiler1: 14.04 KB object code size  4.4/3.4/[1.2]
Matrix Compiler2: 11.34 KB object code size  3.1/7.9/[1.0]

